Version 4
SHEET 1 880 680
WIRE -80 -64 -96 -64
WIRE 464 -48 224 -48
WIRE 464 0 464 -48
WIRE 160 16 80 16
WIRE 336 16 160 16
WIRE 160 32 160 16
WIRE -208 64 -336 64
WIRE -128 64 -208 64
WIRE 32 64 -32 64
WIRE 480 80 464 80
WIRE 32 96 32 64
WIRE 80 96 32 96
WIRE 128 96 80 96
WIRE 160 96 128 96
WIRE -208 112 -208 64
WIRE -336 144 -336 128
WIRE -80 144 -80 -64
WIRE -80 144 -128 144
WIRE -32 144 -80 144
WIRE 224 144 224 -48
WIRE -128 160 -128 144
WIRE 128 160 128 96
WIRE 192 160 128 160
WIRE 336 176 336 16
WIRE 336 176 256 176
WIRE 368 176 336 176
WIRE 192 192 160 192
WIRE -208 224 -208 192
WIRE -208 224 -336 224
WIRE -128 224 -208 224
WIRE 160 224 160 192
WIRE 160 224 -128 224
WIRE 480 224 480 80
WIRE 480 224 160 224
WIRE 160 240 160 224
WIRE 480 400 480 224
WIRE 224 480 224 208
WIRE 480 480 224 480
FLAG 160 240 0
FLAG 368 176 vout
IOPIN 368 176 Out
FLAG -96 -64 vin
IOPIN -96 -64 In
SYMBOL cap 144 32 R0
SYMATTR InstName C1
SYMATTR Value 370p
SYMBOL res 64 0 R0
SYMATTR InstName R1
SYMATTR Value 5Meg
SYMBOL res -48 48 R0
SYMATTR InstName R2
SYMATTR Value 470
SYMBOL cap -144 160 R0
SYMATTR InstName C2
SYMATTR Value 500p
SYMBOL res -144 48 R0
SYMATTR InstName R3
SYMATTR Value 100m
SYMBOL res -224 96 R0
SYMATTR InstName R4
SYMATTR Value 2.5G
SYMBOL cap -352 64 R0
SYMATTR InstName C3
SYMATTR Value 3.2n
SYMBOL voltage 464 -16 R0
WINDOW 123 0 0 Left 0
WINDOW 39 24 124 Left 2
SYMATTR InstName V1
SYMATTR Value 12
SYMATTR SpiceLine Rser=0
SYMBOL voltage 480 384 R0
WINDOW 123 0 0 Left 0
WINDOW 39 0 0 Left 0
SYMATTR InstName V2
SYMATTR Value 12
SYMBOL Opamps\\AD744 224 112 R0
SYMATTR InstName U2
SYMBOL current -336 144 R0
WINDOW 123 24 108 Left 2
WINDOW 39 24 136 Left 2
SYMATTR InstName I1
SYMATTR Value 0
SYMATTR Value2 AC 100p 0
SYMATTR SpiceLine load
TEXT -370 500 Left 2 !.ac oct 100 10 100k
